Circuit: * C:\Users\eps\Desktop\tutorialP1.asc

Direct Newton iteration for .op point succeeded.

Date: Mon Oct 01 10:34:57 2018
Total elapsed time: 0.048 seconds.

tnom = 27
temp = 27
method = modified trap
totiter = 3245
traniter = 3240
tranpoints = 1621
accept = 1621
rejected = 0
matrix size = 11
fillins = 1
solver = Normal
Matrix Compiler1: 360 bytes object code size  0.1/0.1/[0.0]
Matrix Compiler2: 725 bytes object code size  0.1/0.1/[0.1]

